[TITLE]


[JUNCTIONS]
;ID              	Elev        	Demand      	Pattern         
 R.M.            	50          	0.000000    	                	;
 400_1000        	50          	0.000000    	                	;
 P12             	50          	0.000000    	                	;
 OutP4           	50          	0.000000    	                	;
 OutP5           	50          	0.000000    	                	;
 OutP6           	50          	0.000000    	                	;
 OutP7           	50          	0.000000    	                	;
 OutP10          	50          	0.000000    	                	;
 OutP89          	50          	0.000000    	                	;
 SZANUT          	50          	0.000000    	                	;
 SFDN80          	50          	0.000000    	                	;
 SZANUT2         	50          	0.000000    	                	;
 RAP             	50          	0.000000    	                	;
 RAP2            	50          	0.000000    	                	;
 IN.RAD.         	11.500000   	0.000000    	                	;
 SF.MAN.         	11.000000   	0.000000    	                	;
 IN.RAD.DN600    	11.500000   	0.000000    	                	;
 SFDN600         	11.000000   	0.000000    	                	;
 CAM2            	10.000000   	0.000000    	                	;
 CAM1            	10.000000   	0.000000    	                	;
 BP600.1500      	11.000000   	0.000000    	                	;
 BP2600.15       	11.000000   	0.000000    	                	;
 SF10AUTO        	9.600000    	0.000000    	                	;
 SF10AUTO2       	9.600000    	0.000000    	                	;
 SPOLO           	9.300000    	0.000000    	                	;
 SPOLO2          	8.260000    	0.000000    	                	;
 SPOLO3          	7.980000    	0.000000    	                	;
 8304802         	7.730000    	0.000000    	                	;
 SPOLO4          	9.000000    	0.000000    	                	;
 83048022        	8.700000    	0.000000    	                	;
 a1              	8.300000    	0.000000    	                	;
 a2              	0.000000    	0.000000    	                	;
 MONO1           	8.000000    	0.000000    	                	;
 MONO2           	8.000000    	0.000000    	                	;
 IDR21           	7.000000    	0.000000    	                	;
 RONCHI1         	6.700000    	0.000000    	                	;
 RONCHI2         	6.300000    	0.000000    	                	;
 RONCHI3         	6.000000    	0.000000    	                	;
 PROSSA          	5.700000    	0.000000    	                	;
 PDM             	5.500000    	0.000000    	                	;
 MONF            	5.000000    	0.000000    	                	;
 IDR3            	4.000000    	0.000000    	                	;
 SER1            	3.000000    	0.000000    	                	;
 IDR4            	2.500000    	0.000000    	                	;
 SABLICI         	2.000000    	0.000000    	                	;
 RANDIN          	1.000000    	0.000000    	                	;
 Pegan_n         	50          	0.000000    	                	;
 HPRV1           	50          	0.000000    	                	;
 NRV1            	50          	0.000000    	                	;
 NRV2            	50          	0.000000    	                	;
 NRV3            	50          	0.000000    	                	;
 NRV4            	50          	0.000000    	                	;
 NRV5            	50          	0.000000    	                	;
 NRV6            	50          	0.000000    	                	;
 NRV7            	50          	0.000000    	                	;
 NRV8            	50          	0.000000    	                	;
 NRV9            	50          	0.000000    	                	;
 NRV10           	50          	0.000000    	                	;
 Mucille         	0.000000    	0.000000    	                	;
 Rand2           	0.000000    	0           	                	;
 1               	0           	90          	1               	;
 69              	0           	90          	1               	;
 70              	0           	90          	1               	;
 71              	0           	90          	1               	;
 72              	0           	90          	1               	;
 73              	0           	90          	1               	;
 74              	0           	90          	1               	;
 75              	0           	90          	1               	;
 76              	0           	90          	1               	;
 77              	0           	90          	1               	;
 78              	0           	90          	1               	;
 79              	0           	90          	1               	;
 80              	0           	90          	1               	;
 81              	0           	90          	1               	;
 82              	0           	90          	1               	;
 83              	0           	90          	1               	;
 84              	0           	90          	1               	;
 85              	0           	90          	1               	;
 86              	0           	90          	1               	;
 87              	0           	90          	1               	;
 88              	0           	90          	1               	;
 89              	0           	90          	1               	;
 90              	0           	90          	1               	;
 91              	0           	90          	1               	;
 92              	0           	90          	1               	;
 93              	0           	90          	1               	;
 94              	0           	90          	1               	;
 95              	0           	90          	1               	;
 96              	0           	90          	1               	;
 97              	0           	90          	1               	;
 98              	0           	90          	1               	;
 99              	0           	90          	1               	;
 100             	0           	90          	1               	;
 101             	0           	90          	1               	;
 102             	0           	90          	1               	;
 103             	0           	90          	1               	;
 104             	0           	90          	1               	;
 105             	0           	90          	1               	;
 106             	0           	90          	1               	;
 107             	0           	90          	1               	;

[RESERVOIRS]
;ID              	Head        	Pattern         
 POZZO_12        	150         	                	;
 POZZO_2         	150         	                	;
 POZZO_3         	150         	                	;
 POZZO_4         	150         	                	;
 POZZO_5         	150         	                	;
 POZZO_6         	150         	                	;
 POZZO_7         	150         	                	;
 POZZO_8         	150         	                	;
 POZZO_9         	150         	                	;
 POZZO_11        	250         	                	;
 POZZO_16        	250         	                	;
 POZZO_10_P      	150         	                	;
 POZZO_1_P       	150         	                	;

[TANKS]
;ID              	Elevation   	InitLevel   	MinLevel    	MaxLevel    	Diameter    	MinVol      	VolCurve        	Overflow
 2               	60          	10          	0           	20          	100         	0           	                	;

[PIPES]
;ID              	Node1           	Node2           	Length      	Diameter    	Roughness   	MinorLoss   	Status
 P12.400_1000.1  	P12             	400_1000        	148.030609  	1000.000000 	0.010000    	0.000000    	Open  	;
 400_1000.R.M..1 	400_1000        	R.M.            	23.344162   	1000.000000 	0.010000    	0.000000    	Open  	;
 R.M..OutP4.1    	R.M.            	OutP4           	375.083313  	1500.000000 	0.040000    	0.000000    	Open  	;
 OutP4.OutP5.1   	OutP4           	OutP5           	255.017578  	1500.000000 	0.040000    	0.000000    	Open  	;
 OutP5.OutP6.1   	OutP5           	OutP6           	194.730423  	1500.000000 	0.040000    	0.000000    	Open  	;
 OutP6.OutP7.1   	OutP6           	OutP7           	45.427204   	1500.000000 	0.040000    	0.000000    	Open  	;
 OutP7.OutP89.1  	OutP7           	OutP89          	277.845459  	1500.000000 	0.040000    	0.000000    	Open  	;
 OutP89.HPRV1.1  	OutP89          	HPRV1           	56.304371   	1500.000000 	0.040000    	0.000000    	Open  	;
 OutP10.SZANUT.1 	OutP10          	SZANUT          	247.356186  	400.000000  	0.040000    	0.000000    	Open  	;
 SZANUT.SFDN80.1 	SZANUT          	SFDN80          	280.330780  	1500.000000 	0.001000    	0.000000    	Open  	;
 SFDN80.SZANUT2.1	SFDN80          	SZANUT2         	337.139008  	1500.000000 	0.040000    	0.000000    	Open  	;
 SZANUT2.RAP.1   	SZANUT2         	RAP             	643.927673  	1500.000000 	0.010000    	0.000000    	Open  	;
 RAP.RAP2.1      	RAP             	RAP2            	579.688049  	1500.000000 	0.040000    	0.000000    	Open  	;
 RAP2.IN.RAD..1  	RAP2            	IN.RAD.         	2371.137451 	1500.000000 	0.040000    	0.000000    	Open  	;
 IN.RAD..BP2600.15.1	IN.RAD.         	BP2600.15       	170.816925  	1500.000000 	0.040000    	0.000000    	Open  	;
 IN.RAD.DN600.BP600.1500.1	IN.RAD.DN600    	BP600.1500      	173.100555  	600.000000  	0.040000    	0.000000    	Open  	;
 SFDN600.CAM1.1  	SFDN600         	CAM1            	498.886932  	1500.000000 	0.040000    	0.000000    	Open  	;
 SF.MAN..CAM2.1  	SF.MAN.         	CAM2            	484.748962  	1500.000000 	0.040000    	0.000000    	Open  	;
 BP600.1500.SFDN600.1	BP600.1500      	SFDN600         	145.632004  	1500.000000 	0.040000    	0.000000    	Open  	;
 BP2600.15.SF.MAN..1	BP2600.15       	SF.MAN.         	145.924973  	1500.000000 	0.040000    	0.000000    	Open  	;
 CAM2.SF10AUTO.1 	CAM2            	SF10AUTO        	323.028687  	1500.000000 	0.040000    	0.000000    	Open  	;
 CAM1.SF10AUTO2.1	CAM1            	SF10AUTO2       	320.772461  	1500.000000 	0.040000    	0.000000    	Open  	;
 SF10AUTO.SPOLO.1	SF10AUTO        	SPOLO           	230.613831  	1500.000000 	0.040000    	0.000000    	Open  	;
 SF10AUTO2.SPOLO2.1	SF10AUTO2       	SPOLO2          	228.706436  	1500.000000 	0.040000    	0.000000    	Open  	;
 SPOLO.SPOLO3.1  	SPOLO           	SPOLO3          	98.634575   	1500.000000 	0.040000    	0.000000    	Open  	;
 SPOLO3.8304802.1	SPOLO3          	8304802         	157.184601  	1500.000000 	0.040000    	0.000000    	Open  	;
 SPOLO2.SPOLO4.1 	SPOLO2          	SPOLO4          	98.139168   	1500.000000 	0.040000    	0.000000    	Open  	;
 SPOLO4.83048022.1	SPOLO4          	83048022        	161.276611  	1500.000000 	0.040000    	0.000000    	Open  	;
 8304802.a1.1    	8304802         	a1              	195.896637  	1500.000000 	0.040000    	0.000000    	Open  	;
 83048022.a2.1   	83048022        	a2              	194.384201  	1500.000000 	0.040000    	0.000000    	Open  	;
 a1.MONO1.1      	a1              	MONO1           	247.666779  	1500.000000 	0.040000    	0.000000    	Open  	;
 a2.MONO2.1      	a2              	MONO2           	247.971588  	1500.000000 	0.040000    	0.000000    	Open  	;
 MONO1.Mucille.1 	MONO1           	Mucille         	237.401428  	1500.000000 	0.040000    	0.000000    	Open  	;
 MONO2.Mucille.1 	MONO2           	Mucille         	237.821228  	1500.000000 	0.040000    	0.000000    	Open  	;
 Mucille.IDR21.1 	Mucille         	IDR21           	189.422836  	2000.000000 	0.040000    	0.000000    	Open  	;
 IDR21.RONCHI1.1 	IDR21           	RONCHI1         	290.472260  	2000.000000 	0.040000    	0.000000    	Open  	;
 RONCHI1.RONCHI2.1	RONCHI1         	RONCHI2         	136.850784  	2000.000000 	0.040000    	0.000000    	Open  	;
 RONCHI2.RONCHI3.1	RONCHI2         	RONCHI3         	126.104706  	2000.000000 	0.040000    	0.000000    	Open  	;
 RONCHI3.PROSSA.1	RONCHI3         	PROSSA          	282.591614  	2000.000000 	0.040000    	0.000000    	Open  	;
 PROSSA.PDM.1    	PROSSA          	PDM             	138.944855  	2000.000000 	0.040000    	0.000000    	Open  	;
 PDM.MONF.1      	PDM             	MONF            	500.002716  	2000.000000 	0.040000    	0.000000    	Open  	;
 MONF.IDR3.1     	MONF            	IDR3            	1662.810547 	2000.000000 	0.040000    	0.000000    	Open  	;
 IDR3.SER1.1     	IDR3            	SER1            	921.209412  	2000.000000 	0.040000    	0.000000    	Open  	;
 SER1.IDR4.1     	SER1            	IDR4            	551.084106  	2000.000000 	0.040000    	0.000000    	Open  	;
 IDR4.SABLICI.1  	IDR4            	SABLICI         	369.685059  	2000.000000 	0.040000    	0.000000    	Open  	;
 SABLICI.RANDIN.1	SABLICI         	RANDIN          	1187.134888 	2000.000000 	0.040000    	0.000000    	Open  	;
 Pegan_n.P12.1   	Pegan_n         	P12             	173.165833  	1000.000000 	0.040000    	0.000000    	Open  	;
 POZZO_12.P12.1  	POZZO_12        	P12             	30.574926   	350.000000  	0.040000    	0.000000    	Open  	;
 POZZO_2.NRV10.1 	POZZO_2         	NRV10           	66.469978   	400.000000  	0.010000    	0.000000    	Open  	;
 POZZO_3.R.M..1  	POZZO_3         	R.M.            	305.468811  	400.000000  	0.010000    	0.000000    	Open  	;
 POZZO_4.OutP4.1 	POZZO_4         	OutP4           	26.768536   	400.000000  	0.040000    	0.000000    	Open  	;
 POZZO_11.SZANUT.1	POZZO_11        	SZANUT          	213.099014  	200.000000  	0.080000    	0.000000    	Open  	;
 POZZO_16.IN.RAD.DN600.1	POZZO_16        	IN.RAD.DN600    	1718.031860 	600.000000  	0.040000    	0.000000    	Open  	;
 POZZO_1_P.Pegan_n.1	POZZO_1_P       	Pegan_n         	63.166622   	300.000000  	0.400000    	0.000000    	Open  	;
 HPRV1.OutP10.1  	HPRV1           	OutP10          	76.502106   	1500.000000 	0.040000    	0.000000    	Open  	;
 NRV1.OutP5.1    	NRV1            	OutP5           	59.890743   	400.000000  	0.010000    	0.000000    	Open  	;
 NRV2.OutP6.1    	NRV2            	OutP6           	263.041168  	500.000000  	0.010000    	0.000000    	Open  	;
 NRV3.NRV8.1     	NRV3            	NRV8            	128.935577  	400.000000  	0.040000    	0.000000    	Open  	;
 NRV4.NRV9.1     	NRV4            	NRV9            	182.160782  	400.000000  	0.040000    	0.000000    	Open  	;
 NRV5.OutP10.1   	NRV5            	OutP10          	35.235401   	400.000000  	0.010000    	0.000000    	Open  	;
 NRV6.NRV7.1     	NRV6            	NRV7            	18.913914   	400.000000  	0.004000    	0.000000    	Open  	;
 POZZO_5.NRV1.1  	POZZO_5         	NRV1            	1.000000    	400.000000  	0.010000    	0.000000    	CV    	;
 POZZO_6.NRV2.1  	POZZO_6         	NRV2            	0.535426    	400.000000  	0.001000    	0.000000    	CV    	;
 POZZO_9.NRV3.1  	POZZO_9         	NRV3            	1.000000    	400.000000  	0.040000    	0.000000    	CV    	;
 POZZO_8.NRV4.1  	POZZO_8         	NRV4            	4.249901    	400.000000  	0.040000    	0.000000    	CV    	;
 POZZO_10_P.NRV5.1	POZZO_10_P      	NRV5            	1.940473    	400.000000  	0.040000    	0.000000    	CV    	;
 POZZO_7.NRV6.1  	POZZO_7         	NRV6            	1.515947    	400.000000  	0.001000    	0.000000    	CV    	;
 NRV7.OutP7.1    	NRV7            	OutP7           	1.000000    	400.000000  	0.004000    	0.000000    	CV    	;
 NRV9.OutP89.1   	NRV9            	OutP89          	0.825671    	400.000000  	0.040000    	0.000000    	CV    	;
 NRV8.OutP89.1   	NRV8            	OutP89          	0.638816    	400.000000  	0.040000    	0.000000    	CV    	;
 NRV10.400_1000.1	NRV10           	400_1000        	0.596367    	400.000000  	0.010000    	0.000000    	CV    	;
 1               	Rand2           	1               	26518.24    	2000        	0.001       	0           	Open  	;
 5               	69              	70              	300         	1200        	0.04        	0           	Open  	;
 6               	70              	71              	400         	1000        	0.04        	0           	Open  	;
 7               	71              	72              	400         	1000        	0.04        	0           	Open  	;
 8               	72              	73              	400         	800         	0.04        	0           	Open  	;
 9               	73              	74              	400         	800         	0.04        	0           	Open  	;
 10              	74              	75              	100         	305         	0.04        	0           	Open  	;
 11              	69              	76              	150         	800         	0.04        	0           	Closed	;
 12              	76              	77              	150         	305         	0.04        	0           	Open  	;
 13              	77              	78              	150         	305         	0.04        	0           	Open  	;
 14              	78              	79              	150         	305         	0.04        	0           	Open  	;
 15              	79              	76              	150         	305         	0.04        	0           	Open  	;
 16              	76              	80              	150         	305         	0.04        	0           	Open  	;
 17              	70              	80              	150         	800         	0.04        	0           	Open  	;
 18              	80              	81              	150         	305         	0.04        	0           	Open  	;
 19              	80              	82              	150         	305         	0.04        	0           	Open  	;
 20              	71              	83              	150         	305         	0.04        	0           	Open  	;
 21              	83              	89              	150         	305         	0.04        	0           	Open  	;
 22              	83              	87              	150         	305         	0.04        	0           	Open  	;
 23              	87              	84              	150         	500         	0.04        	0           	Open  	;
 24              	84              	85              	150         	305         	0.04        	0           	Open  	;
 25              	85              	86              	150         	305         	0.04        	0           	Open  	;
 26              	86              	84              	150         	305         	0.04        	0           	Open  	;
 28              	88              	87              	150         	500         	0.04        	0           	Open  	;
 29              	88              	89              	150         	800         	0.04        	0           	Open  	;
 30              	89              	72              	150         	800         	0.04        	0           	Open  	;
 31              	88              	91              	150         	305         	0.04        	0           	Open  	;
 32              	73              	90              	150         	800         	0.04        	0           	Open  	;
 33              	90              	91              	200         	500         	0.04        	0           	Open  	;
 34              	91              	94              	500         	500         	0.04        	0           	Open  	;
 35              	94              	92              	150         	305         	0.04        	0           	Open  	;
 36              	92              	93              	150         	305         	0.04        	0           	Open  	;
 37              	94              	95              	200         	305         	0.04        	0           	Open  	;
 38              	95              	96              	150         	305         	0.04        	0           	Open  	;
 39              	96              	74              	150         	305         	0.04        	0           	Open  	;
 40              	73              	100             	150         	305         	0.04        	0           	Open  	;
 41              	74              	97              	150         	305         	0.04        	0           	Open  	;
 42              	97              	99              	150         	305         	0.04        	0           	Open  	;
 43              	97              	98              	150         	305         	0.04        	0           	Open  	;
 44              	98              	99              	150         	305         	0.04        	0           	Open  	;
 45              	99              	100             	150         	305         	0.04        	0           	Open  	;
 46              	100             	102             	150         	305         	0.04        	0           	Open  	;
 47              	102             	101             	150         	305         	0.04        	0           	Open  	;
 48              	101             	72              	150         	305         	0.04        	0           	Open  	;
 49              	72              	103             	150         	305         	0.04        	0           	Open  	;
 50              	103             	101             	150         	305         	0.04        	0           	Open  	;
 51              	103             	107             	150         	305         	0.04        	0           	Open  	;
 52              	103             	104             	150         	305         	0.04        	0           	Open  	;
 53              	104             	71              	150         	305         	0.04        	0           	Open  	;
 54              	105             	70              	150         	305         	0.04        	0           	Open  	;
 55              	106             	69              	150         	305         	0.04        	0           	Open  	;
 2               	72              	2               	1000        	1200        	0.04        	0           	Open  	;
 3               	RANDIN          	Rand2           	1000        	1200        	0.04        	0           	Open  	;
 56              	93              	94              	150         	400         	0.04        	0           	Open  	;

[PUMPS]
;ID              	Node1           	Node2           	Parameters
 27              	RANDIN          	Rand2           	POWER 700	SPEED 500	PATTERN pump	;

[VALVES]
;ID              	Node1           	Node2           	Diameter    	Type	Setting     	MinorLoss   
 SFDN600.SF.MAN..1	SFDN600         	SF.MAN.         	1000.000000 	TCV 	1.500000    	1.500000    	;
 BP600.1500.BP2600.15.1	BP600.1500      	BP2600.15       	80.000000   	TCV 	1.500000    	1.500000    	;
 57              	1               	69              	1200        	PRV 	80          	0           	;

[TAGS]

[DEMANDS]
;Junction        	Demand      	Pattern         	Category

[STATUS]
;ID              	Status/Setting
 27              	500

[PATTERNS]
;ID              	Multipliers
; IW Transfer Node control time profiles are exported as demand patterns up to the last profile time value.
 Rand2           	-4430.140137	-4802.080078	-5297.859863	-5657.290039	-5614.270020	-5443.959961
 Rand2           	-5513.589844	-5216.540039	-4530.540039	-4052.370117	-3844.739990	-3795.669922
 Rand2           	-3566.159912	-3429.649902	-3671.820068	-3780.090088	-3738.580078	-3635.830078
 Rand2           	-3877.729980	-4177.930176	-4098.140137	-3928.770020	-3873.429932	-3926.270020
 Rand2           	-4097.490234	-4280.419922	-4290.450195	-4082.899902	-4004.260010	-4087.530029
 Rand2           	-4172.109863	-4395.350098	-4495.589844	-4295.000000	-4023.110107	-3838.159912
 Rand2           	-3728.649902	-3686.600098	-3680.790039	-3506.639893	-3426.629883	-3525.639893
 Rand2           	-3625.620117	-3460.350098	-3450.629883	-3701.679932	-3586.969971	-3418.389893
 Rand2           	-3375.510010	-3367.169922	-3369.800049	-3549.959961	-3711.750000	-3511.770020
 Rand2           	-3418.010010	-3396.689941	-3390.360107	-3390.439941	-3380.949951	-2403.010010
 Rand2           	-183.750000 	-1521.260010	-1325.390015	-231.669998 	-766.349976 	-1039.150024
 Rand2           	-1509.170044	-2232.510010	-3020.060059	-2966.110107	-2845.770020	-2962.500000
 Rand2           	-3253.360107	-3216.360107	-3153.080078	-3131.360107	-3270.989990	-3494.860107
 Rand2           	-3668.770020	-3938.919922	-3848.149902	-3686.909912	-3631.800049	-3614.040039
 Rand2           	-3601.870117	-3605.760010	-3714.129883	-4108.140137	-4177.970215	-4147.410156
 Rand2           	-4173.080078	-4393.009766	-4387.379883	-4201.479980	-4126.410156	-4286.330078
 Rand2           	-4458.169922	-4645.959961	-4888.660156	-5359.910156	-5763.799805	-5961.569824
 Rand2           	-5883.149902	-5785.209961	-5909.450195	-5990.810059	-5911.490234	-5768.529785
 Rand2           	-5734.580078	-5666.120117	-5118.859863	-4367.899902	-3961.360107	-3848.409912
 Rand2           	-3721.260010	-3449.409912	-3438.479980	-3702.580078	-3845.899902	-3679.120117
 Rand2           	-3685.929932	-4053.840088	-4340.990234	-4212.609863	-4117.180176	-4068.129883
 Rand2           	-4064.840088	-4097.859863	-4097.399902	-3862.379883	-3754.610107	-3731.780029
 Rand2           	-3729.629883	-3722.560059	-3728.909912	-3741.909912	-3986.840088	-3989.320068
 Rand2           	-3812.790039	-3703.159912	-3401.209961	-3276.959961	-3256.209961	-3366.699951
 Rand2           	-3614.100098	-3437.139893	-3305.129883	-3277.689941	-3363.010010	-3616.110107
 Rand2           	-3805.209961	-4040.919922	-3887.270020	-3759.760010	-3715.080078	-3715.080078
 Rand2           	-3931.360107	-3997.469971	-3799.750000	-3506.540039	-3373.760010	-3530.399902
 Rand2           	-3657.429932	-3440.879883	-3354.409912	-3332.590088	-3379.739990	-3646.179932
 Rand2           	-3539.620117	-3377.629883	-3338.560059	-3404.030029	-3517.439941	-3739.040039
 Rand2           	-4011.449951	-4084.040039	-4109.100098	-4112.029785	-4109.069824	-4116.350098
 Rand2           	-4137.490234	-4403.750000	-4431.779785	-4368.819824	-4334.729980	-4328.930176
 Rand2           	-4505.959961	-4649.600098	-4490.430176	-4335.339844	-4126.470215	-4235.169922
 Rand2           	-4235.509766	-3998.239990	-4074.239990	-4852.899902	-5398.979980	-5773.350098
 Rand2           	-5903.779785	-6123.759766	-6248.100098	-6240.080078	-6080.580078	-6084.680176
 Rand2           	-6209.080078	-6178.939941	-5859.669922	-5608.339844	-5627.580078	-5156.810059
 Rand2           	-4524.459961	-3578.050049	-3170.459961	-3378.760010	-3477.179932	-3531.659912
 Rand2           	-3575.179932	-3843.919922	-4031.679932	-3937.840088	-3884.909912	-3865.550049
 Rand2           	-3861.110107	-3938.330078	-4295.689941	-4298.490234	-4249.140137	-4245.240234
 Rand2           	-4244.350098	-4238.490234	-4237.399902	-4240.279785	-4243.160156	-4275.500000
 Rand2           	-4495.509766	-4474.060059	-4386.649902	-4417.700195	-4856.709961	-5112.470215
 Rand2           	-5357.819824	-5402.120117	-5226.129883	-5188.910156	-5184.500000	-5183.850098
 Rand2           	-5256.379883	-5452.109863	-5371.779785	-5264.700195	-5044.990234	-4470.359863
 Rand2           	-4433.660156	-5099.700195	-5208.589844	-5127.129883	-5097.850098	-5143.839844
 Rand2           	-5373.290039	-5599.589844	-5609.490234	-5606.399902	-5591.629883	-5590.649902
 Rand2           	-5589.390137	-5744.609863	-5761.129883	-5660.250000	-5613.850098	-5586.200195
 Rand2           	-5585.419922	-5581.410156	-5583.919922	-5584.569824	-5582.959961	-5586.689941
 Rand2           	-5592.740234	-5616.270020	-5879.640137	-5950.109863	-5866.020020	-5832.100098
 Rand2           	-5854.830078	-6040.939941	-6039.700195	-5775.569824	-5488.370117	-5520.879883
 Rand2           	-5710.950195	-6024.660156	-6254.839844	-6521.549805	-6670.339844	-6635.660156
 Rand2           	-6512.180176	-6539.740234	-6421.689941	-6159.299805	-5761.629883	-5530.850098
 Rand2           	-5603.990234	-5674.049805	-5427.720215	-5294.919922	-5404.419922	-5470.060059
 Rand2           	-5347.729980	-5186.600098	-5258.080078	-5411.330078	-5368.839844	-5215.310059
 Rand2           	-5176.399902	-5436.950195	-5631.509766	-5552.830078	-5519.220215	-5519.930176
 Rand2           	-5730.959961	-5818.330078	-5708.439941	-5654.759766	-5632.839844	-5621.700195
 Rand2           	-5619.540039	-5620.370117	-5723.620117	-5813.009766	-5721.939941	-5683.459961
 Rand2           	-5625.850098	-5472.779785	-5468.399902	-5618.540039	-5481.830078	-5328.100098
 Rand2           	-5268.189941	-5236.930176	-5230.370117	-5401.009766	-5490.799805	-5336.799805
 Rand2           	-5071.819824	-4859.790039	-4912.250000	-5138.270020	-5284.560059	-5082.470215
 Rand2           	-5015.660156	-4875.910156	-4713.459961	-4943.750000	-4288.729980	-3364.850098
 Rand2           	-2911.280029	-2325.229980	-2706.139893	-3116.810059	-3587.219971	-3742.669922
 Rand2           	-3978.919922	-4135.879883	-4238.660156	-3985.179932	-3844.639893	-3868.810059
 Rand2           	-3857.120117	-4055.919922	-4112.609863	-3956.219971	-3973.899902	-4049.030029
 Rand2           	-4824.330078	-5282.330078	-5358.700195	-5243.580078	-5167.200195	-5251.279785
 Rand2           	-5440.459961	-5351.299805	-5213.370117	-5223.100098	-5415.919922	-5456.700195
 Rand2           	-5276.189941	-5212.310059	-5401.149902	-5453.609863	-5275.779785	-5273.850098
 Rand2           	-5433.209961	-5497.140137	-5364.490234	-5216.240234	-5338.080078	-5456.220215
 Rand2           	-5447.209961	-5246.839844	-5228.709961	-5390.299805	-5459.200195	-5283.020020
 Rand2           	-4827.959961	-4801.970215	-4862.819824	-4693.049805	-4569.890137	-4708.910156
 Rand2           	-4817.109863	-4667.649902	-4754.310059	-5002.649902	-5274.009766	-5269.890137
 Rand2           	-4974.009766	-5091.160156	-5273.600098	-5342.419922	-5535.649902	-5737.830078
 Rand2           	-5686.810059	-5625.089844	-5492.240234	-5477.879883	-5543.169922	-5998.350098
 Rand2           	-6412.169922	-6799.529785	-6787.990234	-6397.660156	-5939.450195	-5487.350098
 Rand2           	-5266.529785	-5170.100098	-5237.470215	-5308.720215	-5181.689941	-5124.319824
 Rand2           	-5100.069824	-5096.310059	-5170.080078	-5357.169922	-5227.810059	-5062.089844