[TITLE]
Scenario: Base  
Date: 6/13/2019 4:53:03 PM  

[JUNCTIONS]
;ID              	Elev        	Demand      	Pattern         
 GJ409           	77.0718     	0.250000    	1               	;
 GJ508           	64.0064     	0.250000    	1               	;
 GJ509           	59.2899     	0.250000    	1               	;
 GJ410           	59.5471     	0.250000    	1               	;
 GJ510           	68.0125     	0.250000    	1               	;
 GJ511           	61.9138     	0.250000    	1               	;
 GJ529           	140.0000    	0.250000    	1               	;
 GJ147           	46.4585     	0.250000    	2               	;
 GJ250           	47.0138     	0.250000    	1               	;
 GJ411           	52.6717     	0.250000    	1               	;
 GJ412           	69.3319     	0.250000    	1               	;
 GJ345           	45.9342     	0.250000    	1               	;
 GJ256           	47.4832     	0.250000    	1               	;
 GJ94            	47.9558     	0.250000    	1               	;
 GJ346           	45.9379     	0.250000    	1               	;
 GJ347           	45.9123     	0.250000    	1               	;
 GJ118           	46.8425     	0.250000    	2               	;
 GJ119           	46.9594     	0.250000    	2               	;
 GJ166           	47.9284     	0.250000    	1               	;
 GJ413           	70.3036     	0.250000    	1               	;
 GJ120           	46.7686     	0.250000    	2               	;
 GJ414           	109.5768    	0.250000    	1               	;
 GJ415           	58.8352     	0.250000    	1               	;
 GJ308           	48.2327     	0.250000    	1               	;
 GJ102           	46.6303     	0.250000    	2               	;
 GJ309           	47.8812     	0.250000    	1               	;
 GJ121           	46.7919     	0.250000    	2               	;
 GJ69            	48.3429     	0.250000    	1               	;
 GJ103           	47.3918     	0.250000    	2               	;
 GJ416           	58.7335     	0.250000    	1               	;
 GJ329           	45.9371     	0.250000    	1               	;
 GJ104           	46.7160     	0.250000    	2               	;
 GJ417           	68.3031     	0.250000    	1               	;
 GJ148           	46.5289     	0.250000    	1               	;
 GJ418           	72.3874     	0.250000    	1               	;
 GJ419           	50.0631     	0.250000    	1               	;
 GJ420           	50.0543     	0.250000    	1               	;
 GJ421           	57.7628     	0.250000    	1               	;
 GJ105           	47.5069     	0.250000    	2               	;
 GJ422           	51.8281     	0.250000    	1               	;
 GJ423           	51.8186     	0.250000    	1               	;
 GJ424           	51.6898     	0.250000    	1               	;
 GJ316           	45.7947     	0.250000    	1               	;
 GJ425           	53.1985     	0.250000    	1               	;
 GJ426           	53.0802     	0.250000    	1               	;
 GJ251           	46.8882     	0.250000    	1               	;
 GJ512           	56.2879     	0.250000    	1               	;
 GJ381           	45.9324     	0.250000    	1               	;
 GJ82            	48.3031     	0.250000    	1               	;
 GJ382           	45.9672     	0.250000    	1               	;
 GJ498           	66.5410     	0.250000    	1               	;
 GJ149           	46.7586     	0.250000    	1               	;
 GJ427           	97.8497     	0.250000    	1               	;
 GJ428           	91.8063     	0.250000    	1               	;
 GJ83            	48.2301     	0.250000    	1               	;
 GJ341           	45.9946     	0.250000    	1               	;
 GJ146           	47.7808     	0.250000    	1               	;
 GJ348           	45.9245     	0.250000    	1               	;
 GJ75            	48.4494     	0.250000    	1               	;
 GJ499           	58.4646     	0.250000    	1               	;
 GJ429           	70.7030     	0.250000    	1               	;
 GJ430           	95.1527     	0.250000    	1               	;
 GJ513           	58.4319     	0.250000    	1               	;
 GJ431           	78.7160     	0.250000    	1               	;
 GJ432           	79.1561     	0.250000    	1               	;
 GJ231           	47.0642     	0.250000    	1               	;
 GJ160           	47.9915     	0.250000    	1               	;
 GJ339           	45.9644     	0.250000    	1               	;
 GJ433           	58.1543     	0.250000    	1               	;
 GJ434           	54.7422     	0.250000    	1               	;
 GJ106           	47.0156     	0.250000    	2               	;
 GJ150           	46.6153     	0.250000    	2               	;
 GJ435           	63.6910     	0.250000    	1               	;
 GJ436           	113.5703    	0.250000    	1               	;
 GJ437           	99.1584     	0.250000    	1               	;
 GJ383           	45.9470     	0.250000    	1               	;
 GJ349           	45.8419     	0.250000    	2               	;
 GJ89            	48.0495     	0.250000    	1               	;
 GJ350           	45.7998     	0.250000    	2               	;
 GJ384           	45.9274     	0.250000    	1               	;
 GJ63            	48.2548     	0.250000    	1               	;
 GJ438           	52.3359     	0.250000    	1               	;
 GJ439           	56.8764     	0.250000    	1               	;
 GJ440           	79.8356     	0.250000    	1               	;
 GJ441           	95.6836     	0.250000    	1               	;
 GJ442           	79.0145     	0.250000    	1               	;
 GJ385           	47.5984     	0.250000    	1               	;
 GJ95            	47.8388     	0.250000    	1               	;
 GJ514           	56.9452     	0.250000    	1               	;
 GJ386           	45.9121     	0.250000    	1               	;
 GJ530           	72.1330     	0.250000    	1               	;
 GJ443           	72.7281     	0.250000    	1               	;
 GJ387           	45.9575     	0.250000    	1               	;
 GJ351           	45.9253     	0.250000    	1               	;
 GJ317           	46.2713     	0.250000    	1               	;
 GJ76            	48.4571     	0.250000    	1               	;
 GJ444           	81.6334     	0.250000    	1               	;
 GJ445           	54.1905     	0.250000    	1               	;
 GJ352           	45.8438     	0.250000    	2               	;
 GJ446           	50.6489     	0.250000    	1               	;
 GJ447           	69.1664     	0.250000    	1               	;
 GJ261           	48.1653     	0.250000    	1               	;
 GJ448           	61.8314     	0.250000    	1               	;
 GJ107           	46.6468     	0.250000    	2               	;
 GJ449           	52.2734     	0.250000    	1               	;
 GJ388           	47.6808     	0.250000    	1               	;
 GJ353           	45.8518     	0.250000    	1               	;
 GJ151           	46.5360     	0.250000    	2               	;
 GJ389           	46.0007     	0.250000    	1               	;
 GJ500           	57.2543     	0.250000    	1               	;
 GJ450           	77.4428     	0.250000    	1               	;
 GJ501           	61.2771     	0.250000    	1               	;
 GJ354           	45.8482     	0.250000    	1               	;
 GJ355           	45.8467     	0.250000    	1               	;
 GJ252           	46.9218     	0.250000    	1               	;
 GJ136           	46.7691     	0.250000    	2               	;
 GJ318           	46.8310     	0.250000    	1               	;
 GJ267           	46.9971     	0.250000    	1               	;
 GJ451           	71.6508     	0.250000    	1               	;
 GJ452           	76.5245     	0.250000    	1               	;
 GJ330           	45.9408     	0.250000    	1               	;
 GJ331           	45.9757     	0.250000    	1               	;
 GJ265           	46.9916     	0.250000    	1               	;
 GJ453           	55.9407     	0.250000    	1               	;
 GJ454           	86.8877     	0.250000    	1               	;
 GJ455           	79.8307     	0.250000    	1               	;
 GJ515           	55.4805     	0.250000    	1               	;
 GJ531           	66.1380     	0.250000    	1               	;
 GJ356           	45.8309     	0.250000    	1               	;
 GJ357           	45.8072     	0.250000    	1               	;
 GJ456           	59.7487     	0.250000    	1               	;
 GJ152           	46.1243     	0.250000    	2               	;
 GJ457           	54.8973     	0.250000    	1               	;
 GJ319           	45.9769     	0.250000    	2               	;
 GJ320           	46.4120     	0.250000    	1               	;
 GJ66            	48.3229     	0.250000    	1               	;
 GJ516           	53.1120     	0.250000    	1               	;
 GJ108           	47.4562     	0.250000    	2               	;
 GJ109           	47.1772     	0.250000    	2               	;
 GJ71            	48.3669     	0.250000    	1               	;
 GJ390           	46.0649     	0.250000    	1               	;
 GJ310           	48.3887     	0.250000    	1               	;
 GJ311           	48.3895     	0.250000    	1               	;
 GJ332           	45.9415     	0.250000    	1               	;
 GJ333           	45.9540     	0.250000    	1               	;
 GJ458           	120.4232    	0.250000    	1               	;
 GJ391           	46.0024     	0.250000    	1               	;
 GJ459           	83.6047     	0.250000    	1               	;
 GJ460           	113.1628    	0.250000    	1               	;
 GJ358           	45.8866     	0.250000    	2               	;
 GJ359           	45.8296     	0.250000    	1               	;
 GJ461           	89.0811     	0.250000    	1               	;
 GJ72            	48.4760     	0.250000    	1               	;
 GJ360           	45.8888     	0.250000    	1               	;
 GJ361           	45.8570     	0.250000    	2               	;
 GJ462           	53.2294     	0.250000    	1               	;
 GJ79            	48.4504     	0.250000    	1               	;
 GJ362           	48.1281     	0.250000    	1               	;
 GJ392           	45.8486     	0.250000    	1               	;
 GJ393           	45.9786     	0.250000    	1               	;
 GJ463           	74.9314     	0.250000    	1               	;
 GJ464           	69.3713     	0.250000    	1               	;
 GJ532           	59.5140     	0.250000    	1               	;
 GJ321           	46.4141     	0.250000    	1               	;
 GJ259           	47.6958     	0.250000    	1               	;
 GJ517           	45.9360     	0.250000    	1               	;
 GJ518           	45.9244     	0.250000    	1               	;
 GJ465           	53.9908     	0.250000    	1               	;
 GJ394           	45.9955     	0.250000    	1               	;
 GJ363           	45.8451     	0.250000    	1               	;
 GJ364           	45.8933     	0.250000    	1               	;
 GJ343           	45.9929     	0.250000    	1               	;
 GJ506           	52.7446     	0.250000    	1               	;
 GJ466           	79.3670     	0.250000    	1               	;
 GJ322           	45.8350     	0.250000    	1               	;
 GJ467           	54.5065     	0.250000    	1               	;
 GJ380           	45.8899     	0.250000    	1               	;
 GJ408           	45.9482     	0.250000    	1               	;
 GJ527           	72.9313     	0.250000    	1               	;
 GJ528           	105.1622    	0.250000    	1               	;
 GJ468           	58.6919     	0.250000    	1               	;
 GJ469           	70.4677     	0.250000    	1               	;
 GJ470           	63.1778     	0.250000    	1               	;
 GJ471           	50.7439     	0.250000    	1               	;
 GJ472           	54.8669     	0.250000    	1               	;
 GJ473           	50.8143     	0.250000    	1               	;
 GJ474           	51.0416     	0.250000    	1               	;
 GJ475           	51.1061     	0.250000    	1               	;
 GJ476           	53.9676     	0.250000    	1               	;
 GJ477           	63.7597     	0.250000    	1               	;
 GJ478           	53.3600     	0.250000    	1               	;
 GJ479           	59.8684     	0.250000    	1               	;
 GJ480           	55.8687     	0.250000    	1               	;
 GJ481           	53.1027     	0.250000    	1               	;
 GJ482           	65.7760     	0.250000    	1               	;
 GJ483           	80.6380     	0.250000    	1               	;
 GJ484           	57.0239     	0.250000    	1               	;
 GJ485           	59.4845     	0.250000    	1               	;
 GJ486           	50.3685     	0.250000    	1               	;
 GJ487           	50.6331     	0.250000    	1               	;
 GJ488           	50.7856     	0.250000    	1               	;
 GJ490           	77.2891     	0.250000    	1               	;
 GJ491           	101.2080    	0.250000    	1               	;
 GJ492           	57.7814     	0.250000    	1               	;
 GJ493           	53.5125     	0.250000    	1               	;
 GJ494           	50.7358     	0.250000    	1               	;
 GJ495           	50.1790     	0.250000    	1               	;
 GJ496           	75.4754     	0.250000    	1               	;
 GJ497           	50.8917     	0.250000    	1               	;
 GJ502           	56.4436     	0.250000    	1               	;
 GJ503           	61.9750     	0.250000    	1               	;
 GJ504           	68.3292     	0.250000    	1               	;
 GJ505           	68.2282     	0.250000    	1               	;
 GJ507           	45.9601     	0.250000    	1               	;
 GJ526           	45.9505     	0.250000    	1               	;
 GJ519           	45.9524     	0.250000    	1               	;
 GJ520           	64.7316     	0.250000    	1               	;
 GJ521           	65.2297     	0.250000    	1               	;
 GJ522           	56.4049     	0.250000    	1               	;
 GJ523           	64.7030     	0.250000    	1               	;
 GJ524           	54.3612     	0.250000    	1               	;
 GJ525           	45.9247     	0.250000    	1               	;
 GJ395           	46.0024     	0.250000    	1               	;
 GJ396           	46.0025     	0.250000    	1               	;
 GJ397           	45.8938     	0.250000    	1               	;
 GJ398           	45.8982     	0.250000    	1               	;
 GJ399           	45.9099     	0.250000    	1               	;
 GJ400           	45.9264     	0.250000    	1               	;
 GJ401           	45.9317     	0.250000    	1               	;
 GJ402           	45.9460     	0.250000    	1               	;
 GJ403           	45.9563     	0.250000    	1               	;
 GJ404           	45.9662     	0.250000    	1               	;
 GJ405           	45.8730     	0.250000    	1               	;
 GJ406           	48.0235     	0.250000    	1               	;
 GJ407           	48.0066     	0.250000    	1               	;
 GJ344           	45.9913     	0.250000    	1               	;
 GJ342           	45.9864     	0.250000    	1               	;
 GJ340           	45.9849     	0.250000    	1               	;
 GJ334           	45.9828     	0.250000    	1               	;
 GJ335           	45.9511     	0.250000    	1               	;
 GJ336           	45.9800     	0.250000    	1               	;
 GJ337           	45.9461     	0.250000    	1               	;
 GJ338           	45.9504     	0.250000    	1               	;
 GJ365           	45.8861     	0.250000    	1               	;
 GJ366           	45.8805     	0.250000    	2               	;
 GJ367           	45.8768     	0.250000    	2               	;
 GJ368           	45.8725     	0.250000    	2               	;
 GJ369           	45.8308     	0.250000    	2               	;
 GJ370           	45.8208     	0.250000    	2               	;
 GJ371           	45.8227     	0.250000    	1               	;
 GJ372           	45.8235     	0.250000    	1               	;
 GJ373           	45.8914     	0.250000    	1               	;
 GJ374           	45.8932     	0.250000    	1               	;
 GJ375           	45.8931     	0.250000    	1               	;
 GJ376           	45.8929     	0.250000    	1               	;
 GJ377           	45.8917     	0.250000    	1               	;
 GJ323           	45.7968     	0.250000    	1               	;
 GJ324           	46.6274     	0.250000    	1               	;
 GJ325           	46.8662     	0.250000    	1               	;
 GJ326           	46.3969     	0.250000    	1               	;
 GJ328           	47.5693     	0.250000    	1               	;
 GJ327           	47.5761     	0.250000    	1               	;
 GJ312           	47.5781     	0.250000    	1               	;
 GJ313           	47.8764     	0.250000    	1               	;
 GJ268           	47.6376     	0.250000    	1               	;
 GJ266           	47.6551     	0.250000    	1               	;
 GJ262           	47.6791     	0.250000    	1               	;
 GJ258           	47.7005     	0.250000    	1               	;
 GJ253           	47.4801     	0.250000    	1               	;
 GJ254           	47.1767     	0.250000    	1               	;
 GJ255           	47.0125     	0.250000    	1               	;
 GJ237           	47.4378     	0.250000    	1               	;
 GJ232           	47.4296     	0.250000    	1               	;
 GJ153           	47.3928     	0.250000    	1               	;
 GJ154           	46.5244     	0.250000    	2               	;
 GJ155           	46.5352     	0.250000    	1               	;
 GJ156           	46.5153     	0.250000    	2               	;
 GJ157           	46.5196     	0.250000    	2               	;
 GJ137           	47.3879     	0.250000    	1               	;
 GJ122           	47.4000     	0.250000    	2               	;
 GJ123           	46.9582     	0.250000    	2               	;
 GJ158           	46.5155     	0.250000    	2               	;
 GJ159           	46.5256     	0.250000    	2               	;
 GJ378           	45.8932     	0.250000    	1               	;
 GJ379           	45.8913     	0.250000    	1               	;
 GJ110           	47.4144     	0.250000    	2               	;
 GJ111           	47.4291     	0.250000    	2               	;
 GJ112           	47.1624     	0.250000    	2               	;
 GJ113           	47.1567     	0.250000    	2               	;
 GJ114           	47.0005     	0.250000    	2               	;
 GJ115           	46.7234     	0.250000    	2               	;
 GJ93            	47.7834     	0.250000    	1               	;
 GJ96            	47.7710     	0.250000    	1               	;
 GJ97            	47.8176     	0.250000    	1               	;
 GJ90            	48.0037     	0.250000    	1               	;
 GJ88            	48.0381     	0.250000    	1               	;
 GJ81            	48.2012     	0.250000    	1               	;
 GJ84            	48.2178     	0.250000    	1               	;
 GJ85            	48.2275     	0.250000    	1               	;
 GJ86            	48.3328     	0.250000    	1               	;
 GJ80            	48.4065     	0.250000    	1               	;
 GJ77            	48.3989     	0.250000    	1               	;
 GJ78            	48.4485     	0.250000    	1               	;
 GJ73            	48.3666     	0.250000    	1               	;
 GJ74            	48.4119     	0.250000    	1               	;
 GJ67            	48.3243     	0.250000    	1               	;
 GJ64            	48.2554     	0.250000    	1               	;
 GJ61            	48.1639     	0.250000    	1               	;
 GJ60            	48.0005     	0.250000    	1               	;
 GJ257           	47.7645     	0.250000    	1               	;
 GJ533           	123.4235    	0.250000    	1               	;
 GJ534           	66.0360     	0.250000    	1               	;
 GJ535           	72.4487     	0.250000    	1               	;
 GJ314           	48.2310     	0.250000    	1               	;
 1               	48.2570     	0.250000    	1               	;
 2               	48.3250     	0.250000    	1               	;
 3               	48.2640     	0.250000    	1               	;
 4               	48.1753     	0.250000    	1               	;
 5               	47.7710     	0.250000    	1               	;
 6               	47.9630     	0.250000    	1               	;
 7               	52.1790     	0.250000    	1               	;
 9               	45.9505     	0.250000    	1               	;
 10              	46.0000     	0.250000    	1               	;
 11              	68.0125     	0.250000    	1               	;
 8               	48.8330     	3.000000    	1               	;

[RESERVOIRS]
;ID              	Head        	Pattern         
 Kamakyahill     	148.0000    	                	;

[TANKS]
;ID              	Elevation   	InitLevel   	MinLevel    	MaxLevel    	Diameter    	MinVol      	VolCurve

[PIPES]
;ID              	Node1           	Node2           	Length      	Diameter    	Roughness   	MinorLoss   	Status
 GP1             	GJ520           	GJ508           	12.1808     	100.0000    	110.0000    	0.0000      	Open  	;
 GP3             	GJ410           	GJ409           	24.1736     	100.0000    	110.0000    	0.0000      	Open  	;
 GP4             	GJ511           	GJ522           	17.5288     	100.0000    	110.0000    	0.0000      	Open  	;
 GP5             	GJ156           	GJ147           	21.5371     	100.0000    	110.0000    	0.0000      	Open  	;
 GP6             	GJ255           	GJ250           	23.3743     	100.0000    	110.0000    	0.0000      	Open  	;
 GP7             	GJ411           	GJ412           	23.4809     	100.0000    	110.0000    	0.0000      	Open  	;
 GP9             	GJ97            	GJ94            	26.1323     	100.0000    	110.0000    	0.0000      	Open  	;
 GP12            	GJ345           	GJ346           	30.4543     	100.0000    	110.0000    	0.0000      	Open  	;
 GP13            	GJ345           	GJ347           	76.7018     	100.0000    	110.0000    	0.0000      	Open  	;
 GP15            	GJ120           	GJ123           	35.6238     	100.0000    	110.0000    	0.0000      	Open  	;
 GP16            	GJ414           	GJ492           	42.3400     	100.0000    	110.0000    	0.0000      	Open  	;
 GP17            	GJ411           	GJ415           	36.1871     	100.0000    	110.0000    	0.0000      	Open  	;
 GP18            	GJ314           	GJ308           	39.0082     	100.0000    	110.0000    	0.0000      	Open  	;
 GP19            	GJ313           	GJ309           	40.1065     	100.0000    	110.0000    	0.0000      	Open  	;
 GP20            	GJ119           	GJ121           	54.8349     	100.0000    	110.0000    	0.0000      	Open  	;
 GP23            	GJ103           	GJ112           	42.7495     	100.0000    	110.0000    	0.0000      	Open  	;
 GP24            	GJ479           	GJ416           	108.1048    	100.0000    	110.0000    	0.0000      	Open  	;
 GP25            	GJ329           	GJ338           	44.4515     	100.0000    	110.0000    	0.0000      	Open  	;
 GP26            	GJ115           	GJ104           	44.5642     	100.0000    	110.0000    	0.0000      	Open  	;
 GP27            	GJ417           	GJ472           	45.4441     	100.0000    	110.0000    	0.0000      	Open  	;
 GP29            	GJ419           	GJ420           	46.7000     	100.0000    	110.0000    	0.0000      	Open  	;
 GP30            	GJ509           	GJ510           	92.1469     	100.0000    	110.0000    	0.0000      	Open  	;
 GP31            	GJ421           	GJ471           	50.9424     	100.0000    	110.0000    	0.0000      	Open  	;
 GP32            	GJ105           	GJ108           	58.1478     	100.0000    	110.0000    	0.0000      	Open  	;
 GP33            	GJ422           	GJ423           	51.0000     	100.0000    	110.0000    	0.0000      	Open  	;
 GP34            	GJ485           	GJ424           	51.1302     	100.0000    	110.0000    	0.0000      	Open  	;
 GP37            	GJ323           	GJ316           	52.5497     	100.0000    	110.0000    	0.0000      	Open  	;
 GP38            	GJ481           	GJ425           	52.9707     	100.0000    	110.0000    	0.0000      	Open  	;
 GP41            	GJ484           	GJ426           	56.1970     	100.0000    	110.0000    	0.0000      	Open  	;
 GP44            	GJ381           	GJ401           	59.1544     	100.0000    	110.0000    	0.0000      	Open  	;
 GP45            	GJ82            	GJ85            	60.1817     	100.0000    	110.0000    	0.0000      	Open  	;
 GP46            	GJ404           	GJ382           	60.4884     	100.0000    	110.0000    	0.0000      	Open  	;
 GP48            	GJ504           	GJ498           	66.5603     	100.0000    	110.0000    	0.0000      	Open  	;
 GP49            	GJ155           	GJ149           	60.7198     	100.0000    	110.0000    	0.0000      	Open  	;
 GP50            	GJ427           	GJ428           	61.3787     	100.0000    	110.0000    	0.0000      	Open  	;
 GP51            	GJ341           	GJ342           	102.0201    	100.0000    	110.0000    	0.0000      	Open  	;
 GP52            	GJ346           	GJ348           	86.7498     	100.0000    	110.0000    	0.0000      	Open  	;
 GP53            	GJ78            	GJ75            	65.0917     	100.0000    	110.0000    	0.0000      	Open  	;
 GP54            	GJ505           	GJ499           	137.4801    	100.0000    	110.0000    	0.0000      	Open  	;
 GP55            	GJ488           	GJ429           	65.5300     	100.0000    	110.0000    	0.0000      	Open  	;
 GP56            	GJ483           	GJ430           	67.3843     	100.0000    	110.0000    	0.0000      	Open  	;
 GP57            	GJ513           	GJ524           	88.2208     	100.0000    	110.0000    	0.0000      	Open  	;
 GP58            	GJ475           	GJ431           	67.8849     	100.0000    	110.0000    	0.0000      	Open  	;
 GP59            	GJ474           	GJ432           	68.0400     	100.0000    	110.0000    	0.0000      	Open  	;
 GP60            	GJ232           	GJ231           	67.9042     	100.0000    	110.0000    	0.0000      	Open  	;
 GP61            	GJ60            	GJ160           	68.4925     	100.0000    	110.0000    	0.0000      	Open  	;
 GP62            	GJ340           	GJ339           	69.4700     	100.0000    	110.0000    	0.0000      	Open  	;
 GP64            	GJ433           	GJ434           	70.4767     	100.0000    	110.0000    	0.0000      	Open  	;
 GP65            	GJ102           	GJ106           	111.0379    	100.0000    	110.0000    	0.0000      	Open  	;
 GP66            	GJ158           	GJ150           	92.1593     	100.0000    	110.0000    	0.0000      	Open  	;
 GP67            	GJ473           	GJ435           	71.4933     	100.0000    	110.0000    	0.0000      	Open  	;
 GP68            	GJ436           	GJ437           	74.4040     	100.0000    	110.0000    	0.0000      	Open  	;
 GP69            	GJ383           	GJ402           	72.0377     	100.0000    	110.0000    	0.0000      	Open  	;
 GP70            	GJ368           	GJ349           	72.3381     	100.0000    	110.0000    	0.0000      	Open  	;
 GP72            	GJ90            	GJ89            	72.6683     	100.0000    	110.0000    	0.0000      	Open  	;
 GP73            	GJ384           	GJ400           	73.0480     	100.0000    	110.0000    	0.0000      	Open  	;
 GP74            	GJ64            	GJ63            	73.5714     	100.0000    	110.0000    	0.0000      	Open  	;
 GP75            	GJ497           	GJ439           	80.1289     	100.0000    	110.0000    	0.0000      	Open  	;
 GP76            	GJ440           	GJ441           	76.9783     	100.0000    	110.0000    	0.0000      	Open  	;
 GP77            	GJ442           	GJ476           	76.2564     	100.0000    	110.0000    	0.0000      	Open  	;
 GP78            	GJ385           	GJ405           	76.1909     	100.0000    	110.0000    	0.0000      	Open  	;
 GP79            	GJ398           	GJ397           	77.4684     	100.0000    	110.0000    	0.0000      	Open  	;
 GP80            	GJ106           	GJ111           	77.2357     	100.0000    	110.0000    	0.0000      	Open  	;
 GP81            	GJ77            	GJ80            	78.0809     	100.0000    	110.0000    	0.0000      	Open  	;
 GP82            	GJ480           	GJ411           	79.4797     	100.0000    	110.0000    	0.0000      	Open  	;
 GP83            	GJ399           	GJ386           	80.9934     	100.0000    	110.0000    	0.0000      	Open  	;
 GP84            	GJ535           	GJ530           	135.6444    	100.0000    	110.0000    	0.0000      	Open  	;
 GP85            	GJ470           	GJ443           	82.2316     	100.0000    	110.0000    	0.0000      	Open  	;
 GP87            	GJ387           	GJ403           	83.1038     	100.0000    	110.0000    	0.0000      	Open  	;
 GP88            	GJ119           	GJ122           	84.4753     	100.0000    	110.0000    	0.0000      	Open  	;
 GP91            	GJ374           	GJ351           	84.6833     	100.0000    	110.0000    	0.0000      	Open  	;
 GP92            	GJ324           	GJ317           	93.0324     	100.0000    	110.0000    	0.0000      	Open  	;
 GP95            	GJ477           	GJ444           	106.2323    	100.0000    	110.0000    	0.0000      	Open  	;
 GP96            	GJ410           	GJ445           	86.3258     	100.0000    	110.0000    	0.0000      	Open  	;
 GP97            	GJ366           	GJ352           	86.9091     	100.0000    	110.0000    	0.0000      	Open  	;
 GP99            	GJ446           	GJ447           	89.2187     	100.0000    	110.0000    	0.0000      	Open  	;