;Export from InfoWorks 4.0.4.6013 to EPANET 2 file format of:
;	Network: Prova 2
;	Control: Controllo adduz semplificato#1
;	Demand Diagram: Domanda_settimanale
;
[JUNCTIONS]
;ID              	Elev        	Demand      	Pattern
 R.M.            	18.000000   	0.000000    	
 400-1000        	18.300000   	0.000000    	
 P12             	19.000000   	0.000000    	
 OutP4           	17.000000   	0.000000    	
 OutP5           	16.500000   	0.000000    	
 OutP6           	16.000000   	0.000000    	
 OutP7           	15.500000   	0.000000    	
 OutP10          	14.600000   	0.000000    	
 OutP89          	15.000000   	0.000000    	
 SZANUT          	14.000000   	0.000000    	
 SFDN80          	13.500000   	0.000000    	
 SZANUT2         	13.000000   	0.000000    	
 RAP             	12.500000   	0.000000    	
 RAP2            	12.200000   	0.000000    	
 IN.RAD.         	11.500000   	0.000000    	
 SF.MAN.         	11.000000   	0.000000    	
 IN.RAD.DN600    	11.500000   	0.000000    	
 SFDN600         	11.000000   	0.000000    	
 CAM2            	10.000000   	0.000000    	
 CAM1            	10.000000   	0.000000    	
 BP600.1500      	11.000000   	0.000000    	
 BP2600.15       	11.000000   	0.000000    	
 SF10AUTO        	9.600000    	0.000000    	
 SF10AUTO2       	9.600000    	0.000000    	
 SPOLO           	9.300000    	0.000000    	
 SPOLO2          	8.260000    	0.000000    	
 SPOLO3          	7.980000    	0.000000    	
 8304802         	7.730000    	0.000000    	
 SPOLO4          	9.000000    	0.000000    	
 83048022        	8.700000    	0.000000    	
 a1              	8.300000    	0.000000    	
 a2              	0.000000    	0.000000    	
 MONO1           	8.000000    	0.000000    	
 MONO2           	8.000000    	0.000000    	
 IDR21           	7.000000    	0.000000    	
 RONCHI1         	6.700000    	0.000000    	
 RONCHI2         	6.300000    	0.000000    	
 RONCHI3         	6.000000    	0.000000    	
 PROSSA          	5.700000    	0.000000    	
 PDM             	5.500000    	0.000000    	
 MONF            	5.000000    	0.000000    	
 IDR3            	4.000000    	0.000000    	
 SER1            	3.000000    	0.000000    	
 IDR4            	2.500000    	0.000000    	
 SABLICI         	2.000000    	0.000000    	
 RANDIN          	1.000000    	0.000000    	
 Pegan_n         	19.000000   	0.000000    	
 HPRV1           	14.700000   	0.000000    	
 NRV1            	0.000000    	0.000000    	
 NRV2            	0.000000    	0.000000    	
 NRV3            	0.000000    	0.000000    	
 NRV4            	0.000000    	0.000000    	
 NRV5            	0.000000    	0.000000    	
 NRV6            	18.900000   	0.000000    	
 NRV7            	15.500000   	0.000000    	
 NRV8            	0.000000    	0.000000    	
 NRV9            	0.000000    	0.000000    	
 NRV10           	0.000000    	0.000000    	
 Mucille         	0.000000    	0.000000    	
 Rand2           	0.000000    	0.000000    	
;
[RESERVOIRS]
;ID              	Head        	Pattern
 POZZO_12        	20.000000   	
 POZZO_2         	19.000000   	
 POZZO_3         	20.000000   	
 POZZO_4         	19.700000   	
 POZZO_5         	19.500000   	
 POZZO_6         	19.200000   	
 POZZO_7         	18.900000   	
 POZZO_8         	18.800000   	
 POZZO_9         	18.700000   	
 POZZO_11        	17.500000   	
 POZZO_16        	16.300000   	
 POZZO_10_P      	18.500000   	
 POZZO_1_P       	20.000000   	
;
[TANKS]
;ID              	Elevation   	InitLevel   	MinLevel    	MaxLevel    	Diameter    	MinVol      	VolCurve
;
[PIPES]
;ID              	Node1           	Node2           	Length      	Diameter    	Roughness   	MinorLoss   	Status
 P12.400-1000.1  	P12             	400-1000        	148.030609  	1000.000000 	0.010000    	0.000000	
 400-1000.R.M..1 	400-1000        	R.M.            	23.344162   	1000.000000 	0.010000    	0.000000	
 R.M..OutP4.1    	R.M.            	OutP4           	375.083313  	1500.000000 	0.040000    	0.000000	
 OutP4.OutP5.1   	OutP4           	OutP5           	255.017578  	1500.000000 	0.040000    	0.000000	
 OutP5.OutP6.1   	OutP5           	OutP6           	194.730423  	1500.000000 	0.040000    	0.000000	
 OutP6.OutP7.1   	OutP6           	OutP7           	45.427204   	1500.000000 	0.040000    	0.000000	
 OutP7.OutP89.1  	OutP7           	OutP89          	277.845459  	1500.000000 	0.040000    	0.000000	
 OutP89.HPRV1.1  	OutP89          	HPRV1           	56.304371   	1500.000000 	0.040000    	0.000000	
 OutP10.SZANUT.1 	OutP10          	SZANUT          	247.356186  	400.000000  	0.040000    	0.000000	
 SZANUT.SFDN80.1 	SZANUT          	SFDN80          	280.330780  	1500.000000 	0.001000    	0.000000	
 SFDN80.SZANUT2.1	SFDN80          	SZANUT2         	337.139008  	1500.000000 	0.040000    	0.000000	
 SZANUT2.RAP.1   	SZANUT2         	RAP             	643.927673  	1500.000000 	0.010000    	0.000000	
 RAP.RAP2.1      	RAP             	RAP2            	579.688049  	1500.000000 	0.040000    	0.000000	
 RAP2.IN.RAD..1  	RAP2            	IN.RAD.         	2371.137451 	1500.000000 	0.040000    	0.000000	
 IN.RAD..BP2600.15.1	IN.RAD.         	BP2600.15       	170.816925  	1500.000000 	0.040000    	0.000000	
 IN.RAD.DN600.BP600.1500.1	IN.RAD.DN600    	BP600.1500      	173.100555  	600.000000  	0.040000    	0.000000	
 SFDN600.CAM1.1  	SFDN600         	CAM1            	498.886932  	1500.000000 	0.040000    	0.000000	
 SF.MAN..CAM2.1  	SF.MAN.         	CAM2            	484.748962  	1500.000000 	0.040000    	0.000000	
 BP600.1500.SFDN600.1	BP600.1500      	SFDN600         	145.632004  	1500.000000 	0.040000    	0.000000	
 BP2600.15.SF.MAN..1	BP2600.15       	SF.MAN.         	145.924973  	1500.000000 	0.040000    	0.000000	
 CAM2.SF10AUTO.1 	CAM2            	SF10AUTO        	323.028687  	1500.000000 	0.040000    	0.000000	
 CAM1.SF10AUTO2.1	CAM1            	SF10AUTO2       	320.772461  	1500.000000 	0.040000    	0.000000	
 SF10AUTO.SPOLO.1	SF10AUTO        	SPOLO           	230.613831  	1500.000000 	0.040000    	0.000000	
 SF10AUTO2.SPOLO2.1	SF10AUTO2       	SPOLO2          	228.706436  	1500.000000 	0.040000    	0.000000	
 SPOLO.SPOLO3.1  	SPOLO           	SPOLO3          	98.634575   	1500.000000 	0.040000    	0.000000	
 SPOLO3.8304802.1	SPOLO3          	8304802         	157.184601  	1500.000000 	0.040000    	0.000000	
 SPOLO2.SPOLO4.1 	SPOLO2          	SPOLO4          	98.139168   	1500.000000 	0.040000    	0.000000	
 SPOLO4.83048022.1	SPOLO4          	83048022        	161.276611  	1500.000000 	0.040000    	0.000000	
 8304802.a1.1    	8304802         	a1              	195.896637  	1500.000000 	0.040000    	0.000000	
 83048022.a2.1   	83048022        	a2              	194.384201  	1500.000000 	0.040000    	0.000000	
 a1.MONO1.1      	a1              	MONO1           	247.666779  	1500.000000 	0.040000    	0.000000	
 a2.MONO2.1      	a2              	MONO2           	247.971588  	1500.000000 	0.040000    	0.000000	
 MONO1.Mucille.1 	MONO1           	Mucille         	237.401428  	1500.000000 	0.040000    	0.000000	
 MONO2.Mucille.1 	MONO2           	Mucille         	237.821228  	1500.000000 	0.040000    	0.000000	
 Mucille.IDR21.1 	Mucille         	IDR21           	189.422836  	2000.000000 	0.040000    	0.000000	
 IDR21.RONCHI1.1 	IDR21           	RONCHI1         	290.472260  	2000.000000 	0.040000    	0.000000	
 RONCHI1.RONCHI2.1	RONCHI1         	RONCHI2         	136.850784  	2000.000000 	0.040000    	0.000000	
 RONCHI2.RONCHI3.1	RONCHI2         	RONCHI3         	126.104706  	2000.000000 	0.040000    	0.000000	
 RONCHI3.PROSSA.1	RONCHI3         	PROSSA          	282.591614  	2000.000000 	0.040000    	0.000000	
 PROSSA.PDM.1    	PROSSA          	PDM             	138.944855  	2000.000000 	0.040000    	0.000000	
 PDM.MONF.1      	PDM             	MONF            	500.002716  	2000.000000 	0.040000    	0.000000	
 MONF.IDR3.1     	MONF            	IDR3            	1662.810547 	2000.000000 	0.040000    	0.000000	
 IDR3.SER1.1     	IDR3            	SER1            	921.209412  	2000.000000 	0.040000    	0.000000	
 SER1.IDR4.1     	SER1            	IDR4            	551.084106  	2000.000000 	0.040000    	0.000000	
 IDR4.SABLICI.1  	IDR4            	SABLICI         	369.685059  	2000.000000 	0.040000    	0.000000	
 SABLICI.RANDIN.1	SABLICI         	RANDIN          	1187.134888 	2000.000000 	0.040000    	0.000000	
 RANDIN.Rand2.1  	RANDIN          	Rand2           	674.264771  	2000.000000 	0.040000    	0.000000	
 Pegan_n.P12.1   	Pegan_n         	P12             	173.165833  	1000.000000 	0.040000    	0.000000	
 POZZO_12.P12.1  	POZZO_12        	P12             	30.574926   	350.000000  	0.040000    	0.000000	
 POZZO_2.NRV10.1 	POZZO_2         	NRV10           	66.469978   	400.000000  	0.010000    	0.000000	
 POZZO_3.R.M..1  	POZZO_3         	R.M.            	305.468811  	400.000000  	0.010000    	0.000000	
 POZZO_4.OutP4.1 	POZZO_4         	OutP4           	26.768536   	400.000000  	0.040000    	0.000000	
 POZZO_11.SZANUT.1	POZZO_11        	SZANUT          	213.099014  	200.000000  	0.080000    	0.000000	
 POZZO_16.IN.RAD.DN600.1	POZZO_16        	IN.RAD.DN600    	1718.031860 	600.000000  	0.040000    	0.000000	
 POZZO_1_P.Pegan_n.1	POZZO_1_P       	Pegan_n         	63.166622   	300.000000  	0.400000    	0.000000	
 HPRV1.OutP10.1  	HPRV1           	OutP10          	76.502106   	1500.000000 	0.040000    	0.000000	
 NRV1.OutP5.1    	NRV1            	OutP5           	59.890743   	400.000000  	0.010000    	0.000000	
 NRV2.OutP6.1    	NRV2            	OutP6           	263.041168  	500.000000  	0.010000    	0.000000	
 NRV3.NRV8.1     	NRV3            	NRV8            	128.935577  	400.000000  	0.040000    	0.000000	
 NRV4.NRV9.1     	NRV4            	NRV9            	182.160782  	400.000000  	0.040000    	0.000000	
 NRV5.OutP10.1   	NRV5            	OutP10          	35.235401   	400.000000  	0.010000    	0.000000	
 NRV6.NRV7.1     	NRV6            	NRV7            	18.913914   	400.000000  	0.004000    	0.000000	
 POZZO_5.NRV1.1  	POZZO_5         	NRV1            	1.000000    	400.000000  	0.010000    	0.000000	CV
 POZZO_6.NRV2.1  	POZZO_6         	NRV2            	0.535426    	400.000000  	0.001000    	0.000000	CV
 POZZO_9.NRV3.1  	POZZO_9         	NRV3            	1.000000    	400.000000  	0.040000    	0.000000	CV
 POZZO_8.NRV4.1  	POZZO_8         	NRV4            	4.249901    	400.000000  	0.040000    	0.000000	CV
 POZZO_10_P.NRV5.1	POZZO_10_P      	NRV5            	1.940473    	400.000000  	0.040000    	0.000000	CV
 POZZO_7.NRV6.1  	POZZO_7         	NRV6            	1.515947    	400.000000  	0.001000    	0.000000	CV
 NRV7.OutP7.1    	NRV7            	OutP7           	1.000000    	400.000000  	0.004000    	0.000000	CV
 NRV9.OutP89.1   	NRV9            	OutP89          	0.825671    	400.000000  	0.040000    	0.000000	CV
 NRV8.OutP89.1   	NRV8            	OutP89          	0.638816    	400.000000  	0.040000    	0.000000	CV
 NRV10.400-1000.1	NRV10           	400-1000        	0.596367    	400.000000  	0.010000    	0.000000	CV
;
[PUMPS]
; Any IW multi-pump PSTs are exported as separate EPANET pumps in parallel.
; PST Duty Head and electricity tariff data are not exported.
; Individual pump Duty Flows, Local Loss Coefficients, Minimum Speeds and Cut Off Levels are not exported.
; Any pump without a head-flow curve is set to: HEAD NoPumpCurve.
; IW PLAN PST time profiles are exported as EPANET speed patterns.
; IW FLOW, PROF and AUTO PST control data and profiles are not exported.
;ID              	Node1           	Node2           	Parameters
;
[VALVES]
; Valve pipe friction and local loss are not exported.
; All valve minor losses are either the specified loss coeff. open or taken from the valve curve (specified or default).
; All IW valve types except PRV, PSV and FRV are exported as EPANET TCV valves.
; No control profiles are exported for any valve type.
; For IW THV valves, the exported setting is calculated from the specified opening, the loss coeff. open and the valve curve.
; For IW PRV, PSV and FRV valves, only the constant pressure or flow settings are exported.
; For IW PRV, PSV and FRV valves, the control nodes or links cannot be exported.
; All IW float valves are exported as EPANET TCV valves with the setting and minor loss coefficient taken from the valve curve.
;ID              	Node1           	Node2           	Diameter    	Type	Setting     	MinorLoss
 SFDN600.SF.MAN..1	SFDN600         	SF.MAN.         	1000.000000 	TCV 	1.500000    	1.500000    
 BP600.1500.BP2600.15.1	BP600.1500      	BP2600.15       	80.000000   	TCV 	1.500000    	1.500000    
;
[TAGS]
;No TAG data is exported
;
[DEMANDS]
;Junction        	Demand      	Pattern         	Category
 Rand2           	-1.000000   	Rand2           	
;
[STATUS]
;ID              	Status/Setting
;
[PATTERNS]
;ID              	Multipliers
;Reservoir Level Patterns
; Reservoir Patterns are interpolated from the relevant IW time profiles to fit the Pattern Timestep.
; IW Fixed Head and Well control time profiles are only exported to the last time value in the profile.
;Pump Speed Patterns
; Pump speed patterns are constructed from IW PLAN PST control time profiles.
;Demand Patterns
; Demand Patterns are interpolated from the relevant IW time profiles to fit the Pattern Timestep.
; For IW Demand Diagrams, only the Daily Values are exported.
; IW Transfer Node control time profiles are exported as demand patterns up to the last profile time value.
 Rand2           	-4430.140137	-4802.080078	-5297.859863	-5657.290039	-5614.270020	-5443.959961
 Rand2           	-5513.589844	-5216.540039	-4530.540039	-4052.370117	-3844.739990	-3795.669922
 Rand2           	-3566.159912	-3429.649902	-3671.820068	-3780.090088	-3738.580078	-3635.830078
 Rand2           	-3877.729980	-4177.930176	-4098.140137	-3928.770020	-3873.429932	-3926.270020
 Rand2           	-4097.490234	-4280.419922	-4290.450195	-4082.899902	-4004.260010	-4087.530029
 Rand2           	-4172.109863	-4395.350098	-4495.589844	-4295.000000	-4023.110107	-3838.159912
 Rand2           	-3728.649902	-3686.600098	-3680.790039	-3506.639893	-3426.629883	-3525.639893
 Rand2           	-3625.620117	-3460.350098	-3450.629883	-3701.679932	-3586.969971	-3418.389893
 Rand2           	-3375.510010	-3367.169922	-3369.800049	-3549.959961	-3711.750000	-3511.770020
 Rand2           	-3418.010010	-3396.689941	-3390.360107	-3390.439941	-3380.949951	-2403.010010
 Rand2           	-183.750000 	-1521.260010	-1325.390015	-231.669998 	-766.349976 	-1039.150024
 Rand2           	-1509.170044	-2232.510010	-3020.060059	-2966.110107	-2845.770020	-2962.500000
 Rand2           	-3253.360107	-3216.360107	-3153.080078	-3131.360107	-3270.989990	-3494.860107
 Rand2           	-3668.770020	-3938.919922	-3848.149902	-3686.909912	-3631.800049	-3614.040039
 Rand2           	-3601.870117	-3605.760010	-3714.129883	-4108.140137	-4177.970215	-4147.410156
 Rand2           	-4173.080078	-4393.009766	-4387.379883	-4201.479980	-4126.410156	-4286.330078
 Rand2           	-4458.169922	-4645.959961	-4888.660156	-5359.910156	-5763.799805	-5961.569824
 Rand2           	-5883.149902	-5785.209961	-5909.450195	-5990.810059	-5911.490234	-5768.529785
 Rand2           	-5734.580078	-5666.120117	-5118.859863	-4367.899902	-3961.360107	-3848.409912
 Rand2           	-3721.260010	-3449.409912	-3438.479980	-3702.580078	-3845.899902	-3679.120117
 Rand2           	-3685.929932	-4053.840088	-4340.990234	-4212.609863	-4117.180176	-4068.129883
 Rand2           	-4064.840088	-4097.859863	-4097.399902	-3862.379883	-3754.610107	-3731.780029
 Rand2           	-3729.629883	-3722.560059	-3728.909912	-3741.909912	-3986.840088	-3989.320068
 Rand2           	-3812.790039	-3703.159912	-3401.209961	-3276.959961	-3256.209961	-3366.699951
 Rand2           	-3614.100098	-3437.139893	-3305.129883	-3277.689941	-3363.010010	-3616.110107
 Rand2           	-3805.209961	-4040.919922	-3887.270020	-3759.760010	-3715.080078	-3715.080078
 Rand2           	-3931.360107	-3997.469971	-3799.750000	-3506.540039	-3373.760010	-3530.399902
 Rand2           	-3657.429932	-3440.879883	-3354.409912	-3332.590088	-3379.739990	-3646.179932
 Rand2           	-3539.620117	-3377.629883	-3338.560059	-3404.030029	-3517.439941	-3739.040039
 Rand2           	-4011.449951	-4084.040039	-4109.100098	-4112.029785	-4109.069824	-4116.350098
 Rand2           	-4137.490234	-4403.750000	-4431.779785	-4368.819824	-4334.729980	-4328.930176
 Rand2           	-4505.959961	-4649.600098	-4490.430176	-4335.339844	-4126.470215	-4235.169922
 Rand2           	-4235.509766	-3998.239990	-4074.239990	-4852.899902	-5398.979980	-5773.350098
 Rand2           	-5903.779785	-6123.759766	-6248.100098	-6240.080078	-6080.580078	-6084.680176
 Rand2           	-6209.080078	-6178.939941	-5859.669922	-5608.339844	-5627.580078	-5156.810059
 Rand2           	-4524.459961	-3578.050049	-3170.459961	-3378.760010	-3477.179932	-3531.659912
 Rand2           	-3575.179932	-3843.919922	-4031.679932	-3937.840088	-3884.909912	-3865.550049
 Rand2           	-3861.110107	-3938.330078	-4295.689941	-4298.490234	-4249.140137	-4245.240234
 Rand2           	-4244.350098	-4238.490234	-4237.399902	-4240.279785	-4243.160156	-4275.500000
 Rand2           	-4495.509766	-4474.060059	-4386.649902	-4417.700195	-4856.709961	-5112.470215
 Rand2           	-5357.819824	-5402.120117	-5226.129883	-5188.910156	-5184.500000	-5183.850098
 Rand2           	-5256.379883	-5452.109863	-5371.779785	-5264.700195	-5044.990234	-4470.359863
 Rand2           	-4433.660156	-5099.700195	-5208.589844	-5127.129883	-5097.850098	-5143.839844
 Rand2           	-5373.290039	-5599.589844	-5609.490234	-5606.399902	-5591.629883	-5590.649902
 Rand2           	-5589.390137	-5744.609863	-5761.129883	-5660.250000	-5613.850098	-5586.200195
 Rand2           	-5585.419922	-5581.410156	-5583.919922	-5584.569824	-5582.959961	-5586.689941
 Rand2           	-5592.740234	-5616.270020	-5879.640137	-5950.109863	-5866.020020	-5832.100098
 Rand2           	-5854.830078	-6040.939941	-6039.700195	-5775.569824	-5488.370117	-5520.879883
 Rand2           	-5710.950195	-6024.660156	-6254.839844	-6521.549805	-6670.339844	-6635.660156
 Rand2           	-6512.180176	-6539.740234	-6421.689941	-6159.299805	-5761.629883	-5530.850098
 Rand2           	-5603.990234	-5674.049805	-5427.720215	-5294.919922	-5404.419922	-5470.060059
 Rand2           	-5347.729980	-5186.600098	-5258.080078	-5411.330078	-5368.839844	-5215.310059
 Rand2           	-5176.399902	-5436.950195	-5631.509766	-5552.830078	-5519.220215	-5519.930176
 Rand2           	-5730.959961	-5818.330078	-5708.439941	-5654.759766	-5632.839844	-5621.700195
 Rand2           	-5619.540039	-5620.370117	-5723.620117	-5813.009766	-5721.939941	-5683.459961
 Rand2           	-5625.850098	-5472.779785	-5468.399902	-5618.540039	-5481.830078	-5328.100098
 Rand2           	-5268.189941	-5236.930176	-5230.370117	-5401.009766	-5490.799805	-5336.799805
 Rand2           	-5071.819824	-4859.790039	-4912.250000	-5138.270020	-5284.560059	-5082.470215
 Rand2           	-5015.660156	-4875.910156	-4713.459961	-4943.750000	-4288.729980	-3364.850098
 Rand2           	-2911.280029	-2325.229980	-2706.139893	-3116.810059	-3587.219971	-3742.669922
 Rand2           	-3978.919922	-4135.879883	-4238.660156	-3985.179932	-3844.639893	-3868.810059
 Rand2           	-3857.120117	-4055.919922	-4112.609863	-3956.219971	-3973.899902	-4049.030029
 Rand2           	-4824.330078	-5282.330078	-5358.700195	-5243.580078	-5167.200195	-5251.279785
 Rand2           	-5440.459961	-5351.299805	-5213.370117	-5223.100098	-5415.919922	-5456.700195
 Rand2           	-5276.189941	-5212.310059	-5401.149902	-5453.609863	-5275.779785	-5273.850098
 Rand2           	-5433.209961	-5497.140137	-5364.490234	-5216.240234	-5338.080078	-5456.220215
 Rand2           	-5447.209961	-5246.839844	-5228.709961	-5390.299805	-5459.200195	-5283.020020
 Rand2           	-4827.959961	-4801.970215	-4862.819824	-4693.049805	-4569.890137	-4708.910156
 Rand2           	-4817.109863	-4667.649902	-4754.310059	-5002.649902	-5274.009766	-5269.890137
 Rand2           	-4974.009766	-5091.160156	-5273.600098	-5342.419922	-5535.649902	-5737.830078
 Rand2           	-5686.810059	-5625.089844	-5492.240234	-5477.879883	-5543.169922	-5998.350098
 Rand2           	-6412.169922	-6799.529785	-6787.990234	-6397.660156	-5939.450195	-5487.350098
 Rand2           	-5266.529785	-5170.100098	-5237.470215	-5308.720215	-5181.689941	-5124.319824
 Rand2           	-5100.069824	-5096.310059	-5170.080078	-5357.169922	-5227.810059	-5062.089844
 Rand2           	-5002.430176	-4980.080078	-4978.109863	-5136.250000	-5226.000000	-5031.160156
 Rand2           	-4865.290039	-4867.319824	-5046.669922	-4956.169922	-4837.339844	-4790.390137
 Rand2           	-4812.009766	-5022.720215	-4997.410156	-4858.009766	-4812.379883	-4796.870117
 Rand2           	-4804.080078	-5126.950195	-5297.200195	-5190.629883	-5140.830078	-5119.640137
 Rand2           	-5113.709961	-5216.049805	-5378.569824	-5245.569824	-5161.270020	-5197.750000
 Rand2           	-5383.200195	-5342.990234	-5188.609863	-5178.819824	-5366.790039	-5330.180176
 Rand2           	-5060.390137	-5024.729980	-5286.620117	-5368.609863	-5236.589844	-5288.600098
 Rand2           	-5566.959961	-5741.819824	-5642.129883	-5635.470215	-5798.029785	-5865.209961
 Rand2           	-5678.390137	-5391.020020	-5456.339844	-5525.830078	-5523.169922	-5299.189941
 Rand2           	-5200.029785	-5308.450195	-5356.819824	-5225.720215	-5070.649902	-5155.009766
 Rand2           	-5314.750000	-5318.540039	-5129.620117	-5031.120117	-5290.140137	-5540.529785
 Rand2           	-5458.259766	-5383.120117	-5353.669922	-5352.919922	-5486.240234	-5625.229980
 Rand2           	-5531.979980	-5500.890137	-5524.770020	-5591.899902	-5584.069824	-5475.870117
 Rand2           	-5408.180176	-5520.450195	-5465.580078	-5350.160156	-5300.279785	-5304.470215
 Rand2           	-5498.049805	-5368.049805	-4921.069824	-3773.570068	-2957.340088	-2705.979980
 Rand2           	-2827.439941	-3148.350098	-3005.280029	-2781.040039	-2927.320068	-3998.629883
 Rand2           	-4625.870117	-5112.770020	-5089.529785	-5040.060059	-5020.129883	-5172.680176
 Rand2           	-5241.700195	-5113.040039	-5032.180176	-5002.350098	-5147.899902	-5303.229980
 Rand2           	-5180.640137	-5066.459961	-5025.009766	-5142.109863	-5512.339844	-5713.910156
 Rand2           	-5623.540039	-5562.700195	-5540.700195	-5536.379883	-5698.740234	-5746.169922
 Rand2           	-5608.459961	-5546.399902	-5522.939941	-5646.359863	-5808.209961	-5691.799805
 Rand2           	-5574.080078	-5575.580078	-5743.290039	-5818.359863	-5664.660156	-5560.899902
;
[CURVES]
; Pump efficiency curves are not exported.
;ID              	X-Value     	Y_Value
;Tank Curves
;Pump Curves
;
[CONTROLS]
;No CONTROLS are exported
;
[RULES]
;No RULES are exported
;
[TIMES]
 DURATION            336:00:00
 HYDRAULIC TIMESTEP  0:15:00
 QUALITY TIMESTEP    0:15:00
 REPORT TIMESTEP     1:00:00
 REPORT START        0:00:00
 PATTERN TIMESTEP    1:00:00
 PATTERN START       0:00:00
 RULE TIMESTEP       0:06:00
 START CLOCKTIME     0:00:00
 STATISTIC           NONE

;
[REPORT]
;No REPORT items are exported
;
[OPTIONS]
 Units               	LPS
 Headloss            	D-W
;
[COORDINATES]
;Node            	X-Coord          	Y-Coord
 R.M.             	845726.443000    	5086255.027000  
 400-1000         	845722.846680    	5086278.092480  
 P12              	845776.430000    	5086413.740000  
 OutP4            	845954.859000    	5085957.660000  
 OutP5            	846139.690000    	5085783.620000  
 OutP6            	846329.318660    	5085748.993600  
 OutP7            	846374.287830    	5085742.558950  
 OutP10           	846770.470580    	5085643.493480  
 OutP89           	846642.766300    	5085679.855000  
 SZANUT           	847011.608610    	5085666.560000  
 SFDN80           	847283.667400    	5085610.227890  
 SZANUT2          	847330.377100    	5085278.519520  
 RAP              	847900.792790    	5084979.740740  
 RAP2             	848414.634930    	5085229.094980  
 IN.RAD.          	849520.522280    	5083389.787000  
 SF.MAN.          	849824.174720    	5083312.660270  
 IN.RAD.DN600     	849517.076945    	5083383.490428  
 SFDN600          	849823.160021    	5083306.732304  
 CAM2             	850250.691812    	5083533.159940  
 CAM1             	850263.972766    	5083524.147126  
 BP600.1500       	849680.648884    	5083336.719902  
 BP2600.15        	849681.213120    	5083341.919105  
 SF10AUTO         	850422.190000    	5083803.505000  
 SF10AUTO2        	850422.840985    	5083797.878759  
 SPOLO            	850650.380970    	5083834.220000  
 SPOLO2           	850649.173984    	5083830.036621  
 SPOLO3           	850680.330000    	5083742.960000  
 8304802          	850796.490000    	5083843.056230  
 SPOLO4           	850678.416628    	5083739.190382  
 83048022         	850797.689628    	5083841.593006  
 a1               	850989.620000    	5083839.980000  
 a2               	850989.314659    	5083837.382807  
 MONO1            	851176.192150    	5083678.561700  
 MONO2            	851176.677371    	5083676.796197  
 IDR21            	851531.880000    	5083890.230000  
 RONCHI1          	851804.790000    	5083797.219000  
 RONCHI2          	851907.460000    	5083713.132130  
 RONCHI3          	852029.330000    	5083743.460000  
 PROSSA           	852303.200000    	5083680.015000  
 PDM              	852406.560000    	5083763.425000  
 MONF             	852882.740000    	5083650.380000  
 IDR3             	854469.558800    	5083167.188900  
 SER1             	855331.946000    	5082873.257000  
 IDR4             	855723.270000    	5082490.514000  
 SABLICI          	856006.159000    	5082390.934900  
 RANDIN           	856227.870000    	5081500.975000  
 Pegan_n          	845843.353378    	5086573.451204  
 HPRV1            	846696.604051    	5085663.372319  
 NRV1             	846118.729220    	5085727.516996  
 NRV2             	846236.987867    	5085981.075648  
 NRV3             	846641.887981    	5085800.025440  
 NRV4             	846603.489946    	5085504.101782  
 NRV5             	846760.593208    	5085674.337154  
 NRV6             	846372.311400    	5085723.695400  
 NRV7             	846374.284996    	5085742.506063  
 NRV8             	846642.873906    	5085680.484688  
 NRV9             	846642.617113    	5085679.042919  
 NRV10            	845722.260722    	5086277.981543  
 Mucille          	851378.052812    	5083783.657835  
 POZZO_12         	845772.593862    	5086443.140572  
 POZZO_2          	845668.781436    	5086243.701215  
 POZZO_3          	845470.989344    	5086095.196947  
 POZZO_4          	845958.536310    	5085937.440118  
 POZZO_5          	846118.690827    	5085727.414233  
 POZZO_6          	846236.774040    	5085981.566523  
 POZZO_7          	846372.124339    	5085722.191038  
 POZZO_8          	846599.905969    	5085501.817756  
 POZZO_9          	846641.866021    	5085800.053089  
 POZZO_11         	846892.133123    	5085830.857785  
 POZZO_16         	847916.487714    	5083036.947446  
 POZZO_10_P       	846759.161517    	5085675.646999  
 POZZO_1_P        	845867.763961    	5086631.710502  
 Rand2            	856689.986454    	5081054.776763  
;
[VERTICES]
;Link            	X-Coord          	Y-Coord
 P12.400-1000.1  	845741.000147   	5086340.518851  
 P12.400-1000.1  	845723.298754   	5086305.853623  
 R.M..OutP4.1    	845734.607544   	5086241.322129  
 OutP4.OutP5.1   	845970.547325   	5085936.597571  
 OutP4.OutP5.1   	846029.940444   	5085871.189958  
 OutP5.OutP6.1   	846187.232284   	5085763.133056  
 OutP5.OutP6.1   	846274.213055   	5085751.031384  
 OutP7.OutP89.1  	846404.428657   	5085740.727493  
 OutP7.OutP89.1  	846592.323913   	5085686.367859  
 OutP7.OutP89.1  	846617.140268   	5085688.731322  
 OutP10.SZANUT.1 	846795.345514   	5085639.933517  
 OutP10.SZANUT.1 	846883.649590   	5085639.727199  
 OutP10.SZANUT.1 	846935.848027   	5085647.979916  
 OutP10.SZANUT.1 	846997.743407   	5085671.706479  
 SZANUT.SFDN80.1 	847057.391014   	5085648.739150  
 SZANUT.SFDN80.1 	847130.445810   	5085625.241993  
 SZANUT.SFDN80.1 	847225.288879   	5085609.862036  
 SFDN80.SZANUT2.1	847287.313804   	5085608.468610  
 SFDN80.SZANUT2.1	847295.588547   	5085496.519489  
 SFDN80.SZANUT2.1	847298.254750   	5085467.191249  
 RAP.RAP2.1      	848004.879212   	5085060.059033  
 RAP.RAP2.1      	848146.503249   	5085105.451352  
 RAP.RAP2.1      	848255.444815   	5085152.659365  
 RAP.RAP2.1      	848331.703912   	5085201.683070  
 RAP.RAP2.1      	848373.464846   	5085227.102769  
 RAP2.IN.RAD..1  	848540.495825   	5085195.048991  
 RAP2.IN.RAD..1  	848650.212774   	5085114.589895  
 RAP2.IN.RAD..1  	848748.958028   	5085045.102494  
 RAP2.IN.RAD..1  	848844.046050   	5084971.957861  
 RAP2.IN.RAD..1  	848972.049158   	5084416.058652  
 RAP2.IN.RAD..1  	849034.222096   	5084138.109048  
 RAP2.IN.RAD..1  	849056.165485   	5084057.649952  
 RAP2.IN.RAD..1  	849100.052265   	5084032.049330  
 RAP2.IN.RAD..1  	849118.338423   	5083925.989613  
 RAP2.IN.RAD..1  	849180.511361   	5083893.074528  
 RAP2.IN.RAD..1  	849217.083677   	5083743.128031  
 RAP2.IN.RAD..1  	849217.083677   	5083629.753850  
 RAP2.IN.RAD..1  	849217.083677   	5083552.951986  
 RAP2.IN.RAD..1  	849279.256615   	5083538.323059  
 RAP2.IN.RAD..1  	849374.344638   	5083509.065206  
 IN.RAD..BP2600.15.1	849543.550387   	5083370.093461  
 IN.RAD.DN600.BP600.1500.1	849539.988386   	5083364.580034  
 SFDN600.CAM1.1  	849829.958397   	5083302.190516  